Version 4
SHEET 1 880 680
WIRE -128 16 -304 16
WIRE 64 16 -128 16
WIRE 64 64 64 16
WIRE 320 64 320 0
WIRE -304 176 -304 16
WIRE 512 192 416 192
WIRE 432 240 416 240
WIRE 512 240 432 240
WIRE 432 272 432 240
WIRE 432 272 416 272
WIRE 512 272 512 240
WIRE -304 368 -304 256
WIRE -128 368 -304 368
WIRE 64 368 64 320
WIRE 64 368 -128 368
WIRE 320 384 320 320
WIRE 512 384 512 352
FLAG 320 0 +5V
FLAG 320 384 0
FLAG 512 192 V_out
FLAG 512 384 0
FLAG -128 16 V_in+
FLAG -128 368 V_in-
SYMBOL OpAmps\\LT1997-2 192 192 R0
WINDOW 3 227 -182 Top 2
SYMATTR InstName U1
SYMBOL voltage -304 160 R0
WINDOW 123 0 0 Left 0
WINDOW 39 0 0 Left 0
SYMATTR InstName V1
SYMATTR Value SINE(0 10 3 0)
SYMBOL voltage 512 256 R0
WINDOW 123 0 0 Left 0
WINDOW 39 0 0 Left 0
WINDOW 0 14 5 Left 2
WINDOW 3 17 105 Left 2
SYMATTR InstName V_ref
SYMATTR Value 2.048V
TEXT -304 408 Left 2 !V98 +5V 0 5 \n.tran 1
TEXT 368 -8 Left 2 ;Gain = x 0.2
TEXT 560 296 Left 2 ;MAX6126AASA21+\nVoltage reference
